Circuit: * C:\Users\Matt\Dropbox\Documents\FSAE\PCB\SAMD21-Dev-Board\LTSPICE\Power_Switching_Test.asc

WARNING: Less than two connections to node VBUS.  This node is used by V2.
Direct Newton iteration for .op point succeeded.

Date: Sun Dec 23 22:45:43 2018
Total elapsed time: 0.105 seconds.

tnom = 27
temp = 27
method = modified trap
totiter = 2096
traniter = 2092
tranpoints = 1047
accept = 1047
rejected = 0
matrix size = 9
fillins = 0
solver = Normal
Matrix Compiler1: 394 bytes object code size  0.1/0.2/[0.1]
Matrix Compiler2: 607 bytes object code size  0.1/0.1/[0.1]

